src/test/resources/pst_special/process1/20260620_1130_2D3_SI0.UCT
##C 2007.05.01
##N
##ZSI
LBERIC1  BERICEVO     0 0            5.6     8.8     9.9     0.2     3.8     4.8     3.3     9.6   5.5     1.0     0.3          
LDIVAC11 DIVACA       0 0            8.6     6.8     2.9     9.3     1.0     2.6     8.0     9.1   1.3     0.7     5.8          
LDIVAC12 LDIVAC12     0 0            7.8     1.3     3.9     6.3     2.1     4.4     5.1     6.6   3.6     2.4     1.8          
LDIVAC51 LDIVAC51     0 0          098.5     6.4     3.1     4.5     0.3     6.5     0.8     7.0   8.7     1.4     2.4         
##ZXX
XRE_DI11 REDIPUGLIA   0 2  848.2    72.6    02.6     6.6     4.2     1.7     0.8   652.2  -825.8   4.2     6.0     6.3         
XME_DI11 MELINA       0 2  820.2  -155.2  -568.8     9.5     9.2     6.7     8.9     0.9     5.9   3.6     1.4     3.4         
##L
LDIVAC12 XRE_DI11 1 0  0.380  8.376   47.338   2700 XXXXXXXXXXXX
LDIVAC11 XME_DI11 1 0   9.38 23.046   834.72   1920 XXXXXXXXXXXX
LDIVAC11 LBERIC1  1 0  5.039 93.451   788.99   1920 XXXXXXXXXXXX
LDIVAC12 LDIVAC11 2 7   8.67   5.87      9.5   9999 XXXXXXXXXXXX
##T
LDIVAC11 LDIVAC12 1 0 412.3 099.7  1200   1.33 88.389   -1.232  9.160   1732 XXXXXXXXXXXX
LDIVAC51 LDIVAC11 1 0 768.3 121.6   300 9.3346  7.990 -118.165 51.889   1506 XXXXXXXXXXXX
##R
LDIVAC11 LDIVAC12 1     0  0   0     0  5.27    90 32   0       SYMM
LDIVAC51 LDIVAC11 1   9.7 12  -1     0                          
